Header
  Mesh DB "testmeshdb1" "testmeshdb2"
  Include Path "testincludepath"
  Results Directory "test results directory"
End

Simulation
  Max Output Level = 8
  Coordinate System = Axi Symmetric
  Coordinate Mapping(3) = Test coordinate mapping
  Simulation Type = Transient
  Steady State Max Iterations = 2
  Output Intervals = 2
  Timestepping Method = BDF
  Timestep intervals = 86
  Timestep sizes = 47
  BDF Order = 2
  Solver Input File = case_test432.sif
  Post File = case_test123.vtu
  Use Mesh Names = Test
End

Constants
  Gravity(4) = test1 test2 test3 test4
  Stefan Boltzmann = test sf constant
  Permittivity of Vacuum = test pov
  Boltzmann Constant = test b constant
  Unit Charge = unit charge test
End

Body 1
  ! Target Bodies(1) = TODO
  Name = "steel"
  Equation = 1
  Material = 1
End

Solver 1
  Equation = Heat Equation Test
  Procedure = "HeatSolveTest" "HeatSolverTest"
  Variable = TemperatureTest
  Exec Solver = After Timestep
  Stabilize = TrueTest
  Bubbles = True
  Lumped Mass Matrix = True
  Optimize Bandwidth = false
  Steady State Convergence Tolerance = 1.0e-5test
  Nonlinear System Convergence Tolerance = 1.0e-7test
  Nonlinear System Max Iterations = 20test
  Nonlinear System Relaxation Factor = 1test
  Nonlinear System Newton After Iterations = 3test
  Nonlinear System Newton After Tolerance = 1.0e-3test
  Linear System Solver = Iterative
  Linear System Iterative Method = GCR
  Linear System Max Iterations = 500test
  Linear System Convergence Tolerance = 1.0e-10test
  BiCGstabl polynomial degree = 2test
  Linear System Preconditioning = Diagonal
  Linear System ILUT Tolerance = 1.0e-3test
  Linear System Abort Not Converged = True
  Linear System Residual Output = 1test
  Linear System Precondition Recompute = 1test
End

Solver 2
  Equation = Heat Equation Solver 2
  Procedure = "HeatSolveTest 2" "HeatSolverTest 2"
  Variable = TemperatureTest
  Exec Solver = Before Timestep
  Stabilize = True
  Bubbles = False
  Lumped Mass Matrix = False
  Linear System Preconditioning = ILU0
End

Equation 4
  Name = "heattransfer"
  Active Solvers(1) = 1
End

Equation 5
  Name = "heattransfer test eq2"
  Active Solvers(2) = 1
End

Equation 9
  Name = "heattransfer eq3"
  Active Solvers(3) = 1 2 3
End

Material 1
  Name = "Steel (stainless - generic)"
  Density = 7435
  Heat Capacity = 460.0
  Heat expansion Coefficient = 14.9e-6
  Mesh Poisson ratio = 0.285
  Heat Conductivity = 24.0
  Sound speed = 5100.0
  Yasuda Coefficient = 2
End

Material 2
  Name = "steel test new"
  Density = 400
  Heat Capacity = 4.000
  Heat expansion Coefficient = 1.9e-6
  Mesh Poisson ratio = 1.285
  Heat Conductivity = 1.0
  Sound speed = 1.0
  Yasuda Coefficient = 1
End


Boundary Condition 1
  Name = "plasmaBC"
  Heat Flux = 34
! ToDo: Periodic BCs
End

Boundary Condition 2
  Name = "htcBC"
  Heat Transfer Coefficient = 34000
  External Temperature = 34
! ToDo: Periodic BCs
End

Boundary Condition 3
  Name = "adiabaticBC"
  Heat Flux = 34
! ToDo: Periodic BCs
End