
Solver 1
  equation = Heat Equation Test33223311
  procedure = "HeatSolveTest" "HeatSolverTest"
  variable = TemperatureTest
  exec solver = After Timestep
  stabilize = TrueTest
  bubbles = True
  lumped mass matrix = True
  optimize bandwidth = false
  steady state convergence tolerance = 1.0e-5test
  nonlinear system convergence tolerance = 1.0e-7test
  nonlinear system max iterations = 20test
  nonlinear system relaxation factor = 1test
  nonlinear system newton after iterations = 3test
  nonlinear system newton after tolerance = 1.0e-3test
  linear system solver = Iterative
  linear system iterative method = GCR
  linear system max iterations = 500test
  linear system convergence tolerance = 1.0e-10test
  bicgstabl polynomial degree = 2test
  linear system preconditioning = Diagonal
  linear system ilut tolerance = 1.0e-3test
  linear system abort not converged = True
  linear system residual output = 1test
  linear system precondition recompute = 1test
  name = "1"
End

Solver 2
  equation = Heat Equation Solver 233
  procedure = "HeatSolveTest 2" "HeatSolverTest 233"
  variable = TemperatureTest
  exec solver = Before Timestep
  stabilize = True
  bubbles = False
  lumped mass matrix = False
  linear system preconditioning = ILU0
  name = "2"
End

Solver 3
  name = "3"
  equation = Heat Equation Solver 233
  procedure = "HeatSolveTest 2" "HeatSolverTest 233"
  variable = TemperatureTest
  exec solver = Before Timestep
  stabilize = True
  bubbles = False
  lumped mass matrix = False
  linear system preconditioning = ILU0
End

Solver 4
  name = "heattransfer12_solver"
  Equation = Heat Equation
  Procedure = "HeatSolve" "HeatSolver"
  Variable 1 = Temperature
  Exec Solver = Always
  Stabilize = True
  Bubbles = False
  Lumped Mass Matrix = False
  Optimize Bandwidth = True
  Steady State Convergence Tolerance = 1.0e-10
  Nonlinear System Convergence Tolerance = 1.0e-20
  Nonlinear System Max Iterations = 20
  Nonlinear System Newton After Iterations = 3
  Nonlinear System Newton After Tolerance = 1.0e-20
  Nonlinear System Relaxation Factor = 0.2
  Linear System Solver = Direct
  Linear System Iterative Method = BiCGstab
  Linear System Max Iterations = 500
  Linear System Convergence Tolerance = 1.0e-20
  BiCGstabl polynomial degree = 1
  Linear System Preconditioning = Diagonal
  Linear System ILUT Tolerance = 1.0e-3
  Linear System Abort Not Converged = False
  Linear System Residual Output = 1
  Linear System Precondition Recompute = 1
  Linear System Direct Method = Banded

Solver 5
  name = "heattransfer_test_eq2_solver"
  Equation = Heat Equation
  Procedure = "HeatSolve" "HeatSolver"
  Variable 1 = Temperature
  Exec Solver = Always
  Stabilize = True
  Bubbles = False
  Lumped Mass Matrix = False
  Optimize Bandwidth = True
  Steady State Convergence Tolerance = 1.0e-10
  Nonlinear System Convergence Tolerance = 1.0e-20
  Nonlinear System Max Iterations = 20
  Nonlinear System Newton After Iterations = 3
  Nonlinear System Newton After Tolerance = 1.0e-20
  Nonlinear System Relaxation Factor = 0.2
  Linear System Solver = Direct
  Linear System Iterative Method = BiCGstab
  Linear System Max Iterations = 500
  Linear System Convergence Tolerance = 1.0e-20
  BiCGstabl polynomial degree = 1
  Linear System Preconditioning = Diagonal
  Linear System ILUT Tolerance = 1.0e-3
  Linear System Abort Not Converged = False
  Linear System Residual Output = 1
  Linear System Precondition Recompute = 1
  Linear System Direct Method = Banded

Solver 6
  name = "heattransfer_eq3_solver"
  Equation = Heat Equation
  Procedure = "HeatSolve" "HeatSolver"
  Variable 1 = Temperature
  Exec Solver = Always
  Stabilize = True
  Bubbles = False
  Lumped Mass Matrix = False
  Optimize Bandwidth = True
  Steady State Convergence Tolerance = 1.0e-10
  Nonlinear System Convergence Tolerance = 1.0e-20
  Nonlinear System Max Iterations = 20
  Nonlinear System Newton After Iterations = 3
  Nonlinear System Newton After Tolerance = 1.0e-20
  Nonlinear System Relaxation Factor = 0.2
  Linear System Solver = Direct
  Linear System Iterative Method = BiCGstab
  Linear System Max Iterations = 500
  Linear System Convergence Tolerance = 1.0e-20
  BiCGstabl polynomial degree = 1
  Linear System Preconditioning = Diagonal
  Linear System ILUT Tolerance = 1.0e-3
  Linear System Abort Not Converged = False
  Linear System Residual Output = 1
  Linear System Precondition Recompute = 1
  Linear System Direct Method = Banded

Equation 1
  name = heattransfer12
  active solvers(2) = 1 4 
  active = Logical False
  Phase Change Model = None
End

Equation 2
  name = heattransfer test eq2
  active solvers(3) = 1 2 5 
  active = Logical False
  Phase Change Model = None
End

Equation 3
  name = heattransfer eq3
  active solvers(4) = 1 2 6 
  active = Logical False
  Phase Change Model = None
End

Material 1
  name = "Steel (stainless - generic)"
  density =  en milijon
  heat capacity =  460.0
  heat expansion coefficient =  14.9e-6
  mesh poisson ratio =  0.285
  heat conductivity =  24.0
  sound speed =  5100.0
  yasuda coefficient =  2
End

Material 2
  name = "steel test"
  density =  1
  heat capacity =  1.0
  heat expansion coefficient =  1.9e-6
  mesh poisson ratio =  1.285
  heat conductivity =  1.0
  sound speed =  1.0
  yasuda coefficient =  1
End

Boundary Condition 1
  name = plasmaBC
  heat flux =  75
End

Boundary Condition 2
  name = htcBC
  heat transfer coefficient =  12000
  external temperature =  90
End

Boundary Condition 3
  name = adiabaticBC
  heat flux =  0.001
End
